lv-grid-1.txt
 16/06/15 KIT AIFB             100.00 2015 S KIT AIFB 106 BUS LV_TESTGRID
BUS DATA FOLLOWS 106 ITEMS
0001  BUS_0000001  1  1  3 1.000 0.000       0.0        0.0     0.0     0.0     0.4    0.0     0.0     0.0     0.0     0.0    0
0002  BUS_0000002  1  1  0 1.003 0.001     -3165         40     0.0     0.0     0.4    0.0     0.0     0.0     0.0     0.0    0
0003  BUS_0000003  1  1  0 1.006 0.003       286         40     0.0     0.0     0.4    0.0     0.0     0.0     0.0     0.0    0
0004  BUS_0000004  1  1  0 1.009 0.004       399        116     0.0     0.0     0.4    0.0     0.0     0.0     0.0     0.0    0
0005  BUS_0000005  1  1  0 1.013 0.006       311         44     0.0     0.0     0.4    0.0     0.0     0.0     0.0     0.0    0
0006  BUS_0000006  1  1  0 1.016 0.008     -3571         44     0.0     0.0     0.4    0.0     0.0     0.0     0.0     0.0    0
0007  BUS_0000007  1  1  0 1.019 0.010     -3165         40     0.0     0.0     0.4    0.0     0.0     0.0     0.0     0.0    0
0008  BUS_0000008  1  1  0 1.022 0.012       0.0        0.0     0.0     0.0     0.4    0.0     0.0     0.0     0.0     0.0    0
0009  BUS_0000009  1  1  0 1.024 0.012     -1576         21     0.0     0.0     0.4    0.0     0.0     0.0     0.0     0.0    0
0010  BUS_0000010  1  1  0 1.025 0.013       217         30     0.0     0.0     0.4    0.0     0.0     0.0     0.0     0.0    0
0011  BUS_0000011  1  1  0 1.027 0.014     -3165         40     0.0     0.0     0.4    0.0     0.0     0.0     0.0     0.0    0
0012  BUS_0000012  1  1  0 1.028 0.015     -9071       5655     0.0     0.0     0.4    0.0     0.0     0.0     0.0     0.0    0
0013  BUS_0000013  1  1  0 1.029 0.016     -3165         40     0.0     0.0     0.4    0.0     0.0     0.0     0.0     0.0    0
0014  BUS_0000014  1  1  0 1.030 0.016     -1576         21     0.0     0.0     0.4    0.0     0.0     0.0     0.0     0.0    0
0015  BUS_0000015  1  1  0 1.031 0.016       0.0        0.0     0.0     0.0     0.4    0.0     0.0     0.0     0.0     0.0    0
0016  BUS_0000016  1  1  0 1.032 0.018       286         40     0.0     0.0     0.4    0.0     0.0     0.0     0.0     0.0    0
0017  BUS_0000017  1  1  0 1.034 0.019     -3571         44     0.0     0.0     0.4    0.0     0.0     0.0     0.0     0.0    0
0018  BUS_0000018  1  1  0 1.036 0.020       217         30     0.0     0.0     0.4    0.0     0.0     0.0     0.0     0.0    0
0019  BUS_0000019  1  1  0 1.037 0.021       217         30     0.0     0.0     0.4    0.0     0.0     0.0     0.0     0.0    0
0020  BUS_0000020  1  1  0 1.038 0.022     -5214       5651     0.0     0.0     0.4    0.0     0.0     0.0     0.0     0.0    0
0021  BUS_0000021  1  1  0 1.040 0.023     -2371         30     0.0     0.0     0.4    0.0     0.0     0.0     0.0     0.0    0
0022  BUS_0000022  1  1  0 1.024 0.012       311         44     0.0     0.0     0.4    0.0     0.0     0.0     0.0     0.0    0
0023  BUS_0000023  1  1  0 1.025 0.013     -3165         40     0.0     0.0     0.4    0.0     0.0     0.0     0.0     0.0    0
0024  BUS_0000003  1  1  0 1.026 0.014       286         40     0.0     0.0     0.4    0.0     0.0     0.0     0.0     0.0    0
0025  BUS_0000025  1  1  0 1.027 0.014       149         21     0.0     0.0     0.4    0.0     0.0     0.0     0.0     0.0    0
0026  BUS_0000026  1  1  0 1.028 0.015     -2371         30     0.0     0.0     0.4    0.0     0.0     0.0     0.0     0.0    0
0027  BUS_0000027  1  1  0 1.029 0.016       286         40     0.0     0.0     0.4    0.0     0.0     0.0     0.0     0.0    0
0028  BUS_0000028  1  1  0 1.040 0.023       0.0        0.0     0.0     0.0     0.4    0.0     0.0     0.0     0.0     0.0    0
0029  BUS_0000029  1  1  0 1.004 0.002       217         30     0.0     0.0     0.4    0.0     0.0     0.0     0.0     0.0    0
0030  BUS_0000030  1  1  0 1.010 0.005     -3973         48     0.0     0.0     0.4    0.0     0.0     0.0     0.0     0.0    0
0031  BUS_0000031  1  1  0 1.014 0.008     -8665       5651     0.0     0.0     0.4    0.0     0.0     0.0     0.0     0.0    0
0032  BUS_0000032  1  1  0 1.019 0.010     -3571         44     0.0     0.0     0.4    0.0     0.0     0.0     0.0     0.0    0
0033  BUS_0000033  1  1  0 1.022 0.011     -3571         44     0.0     0.0     0.4    0.0     0.0     0.0     0.0     0.0    0
0034  BUS_0000034  1  1  0 1.026 0.014     -3973         48     0.0     0.0     0.4    0.0     0.0     0.0     0.0     0.0    0
0035  BUS_0000035  1  1  0 1.029 0.015     -3571         44     0.0     0.0     0.4    0.0     0.0     0.0     0.0     0.0    0
0036  BUS_0000036  1  1  0 1.032 0.018     -2371         30     0.0     0.0     0.4    0.0     0.0     0.0     0.0     0.0    0
0037  BUS_0000037  1  1  0 1.034 0.019     -2371         30     0.0     0.0     0.4    0.0     0.0     0.0     0.0     0.0    0
0038  BUS_0000038  1  1  0 1.037 0.021     -9473       5659     0.0     0.0     0.4    0.0     0.0     0.0     0.0     0.0    0
0039  BUS_0000039  1  1  0 1.039 0.022       217         30     0.0     0.0     0.4    0.0     0.0     0.0     0.0     0.0    0
0040  BUS_0000040  1  1  0 1.014 0.008     -9071       5655     0.0     0.0     0.4    0.0     0.0     0.0     0.0     0.0    0
0041  BUS_0000041  1  1  0 1.007 0.003     -3165         40     0.0     0.0     0.4    0.0     0.0     0.0     0.0     0.0    0
0042  BUS_0000042  1  1  0 1.013 0.007       217         30     0.0     0.0     0.4    0.0     0.0     0.0     0.0     0.0    0
0043  BUS_0000043  1  1  0 1.021 0.011       286         40     0.0     0.0     0.4    0.0     0.0     0.0     0.0     0.0    0
0044  BUS_0000044  1  1  0 1.027 0.014       0.0        0.0     0.0     0.0     0.4    0.0     0.0     0.0     0.0     0.0    0
0045  BUS_0000045  1  1  0 1.029 0.015       149         21     0.0     0.0     0.4    0.0     0.0     0.0     0.0     0.0    0
0046  BUS_0000046  1  1  0 1.030 0.015     -3165         40     0.0     0.0     0.4    0.0     0.0     0.0     0.0     0.0    0
0047  BUS_0000047  1  1  0 1.031 0.016     -3165         40     0.0     0.0     0.4    0.0     0.0     0.0     0.0     0.0    0
0048  BUS_0000048  1  1  0 1.032 0.016     -3571         44     0.0     0.0     0.4    0.0     0.0     0.0     0.0     0.0    0
0049  BUS_0000049  1  1  0 1.033 0.017       341         48     0.0     0.0     0.4    0.0     0.0     0.0     0.0     0.0    0
0050  BUS_0000050  1  1  0 1.034 0.017     -3165         40     0.0     0.0     0.4    0.0     0.0     0.0     0.0     0.0    0
0051  BUS_0000051  1  1  0 1.035 0.018     -2371         30     0.0     0.0     0.4    0.0     0.0     0.0     0.0     0.0    0
0052  BUS_0000052  1  1  0 1.035 0.018     -2371         30     0.0     0.0     0.4    0.0     0.0     0.0     0.0     0.0    0
0053  BUS_0000053  1  1  0 1.036 0.019     -2371         30     0.0     0.0     0.4    0.0     0.0     0.0     0.0     0.0    0
0054  BUS_0000054  1  1  0 1.037 0.019       341         48     0.0     0.0     0.4    0.0     0.0     0.0     0.0     0.0    0
0055  BUS_0000055  1  1  0 1.037 0.020       311         44     0.0     0.0     0.4    0.0     0.0     0.0     0.0     0.0    0
0056  BUS_0000056  1  1  0 1.038 0.020     -1576         44     0.0     0.0     0.4    0.0     0.0     0.0     0.0     0.0    0
0057  BUS_0000057  1  1  0 1.038 0.021       149         21     0.0     0.0     0.4    0.0     0.0     0.0     0.0     0.0    0
0058  BUS_0000058  1  1  0 1.039 0.021       286         40     0.0     0.0     0.4    0.0     0.0     0.0     0.0     0.0    0
0059  BUS_0000059  1  1  0 1.039 0.021     -3571         44     0.0     0.0     0.4    0.0     0.0     0.0     0.0     0.0    0
0060  BUS_0000060  1  1  0 1.039 0.022       286         40     0.0     0.0     0.4    0.0     0.0     0.0     0.0     0.0    0
0061  BUS_0000061  1  1  0 1.040 0.022       217         30     0.0     0.0     0.4    0.0     0.0     0.0     0.0     0.0    0
0062  BUS_0000062  1  1  0 1.040 0.023       217         30     0.0     0.0     0.4    0.0     0.0     0.0     0.0     0.0    0
0063  BUS_0000063  1  1  0 1.028 0.015       286         40     0.0     0.0     0.4    0.0     0.0     0.0     0.0     0.0    0
0064  BUS_0000064  1  1  0 1.029 0.016       286         40     0.0     0.0     0.4    0.0     0.0     0.0     0.0     0.0    0
0065  BUS_0000065  1  1  0 1.030 0.016       217         30     0.0     0.0     0.4    0.0     0.0     0.0     0.0     0.0    0
0066  BUS_0000066  1  1  0 1.032 0.017       217         30     0.0     0.0     0.4    0.0     0.0     0.0     0.0     0.0    0
0067  BUS_0000067  1  1  0 1.033 0.018       217         30     0.0     0.0     0.4    0.0     0.0     0.0     0.0     0.0    0
0068  BUS_0000068  1  1  0 1.034 0.019       217         30     0.0     0.0     0.4    0.0     0.0     0.0     0.0     0.0    0
0069  BUS_0000069  1  1  0 1.035 0.019     -9071       5655     0.0     0.0     0.4    0.0     0.0     0.0     0.0     0.0    0
0070  BUS_0000070  1  1  0 1.036 0.020       149         21     0.0     0.0     0.4    0.0     0.0     0.0     0.0     0.0    0
0071  BUS_0000071  1  1  0 1.037 0.020     -2371         30     0.0     0.0     0.4    0.0     0.0     0.0     0.0     0.0    0
0072  BUS_0000072  1  1  0 1.037 0.020       311         44     0.0     0.0     0.4    0.0     0.0     0.0     0.0     0.0    0
0073  BUS_0000073  1  1  0 1.038 0.021     -3165         40     0.0     0.0     0.4    0.0     0.0     0.0     0.0     0.0    0
0074  BUS_0000074  1  1  0 1.038 0.021     -1576         21     0.0     0.0     0.4    0.0     0.0     0.0     0.0     0.0    0
0075  BUS_0000075  1  1  0 1.039 0.021     -2371         30     0.0     0.0     0.4    0.0     0.0     0.0     0.0     0.0    0
0076  BUS_0000076  1  1  0 1.039 0.022       286         40     0.0     0.0     0.4    0.0     0.0     0.0     0.0     0.0    0
0077  BUS_0000077  1  1  0 1.039 0.022       217         30     0.0     0.0     0.4    0.0     0.0     0.0     0.0     0.0    0
0078  BUS_0000078  1  1  0 1.040 0.022       149         21     0.0     0.0     0.4    0.0     0.0     0.0     0.0     0.0    0
0079  BUS_0000079  1  1  0 1.040 0.022       286         40     0.0     0.0     0.4    0.0     0.0     0.0     0.0     0.0    0
0080  BUS_0000080  1  1  0 1.041 0.023     -3165         40     0.0     0.0     0.4    0.0     0.0     0.0     0.0     0.0    0
0081  BUS_0000081  1  1  0 1.041 0.023     -3571         44     0.0     0.0     0.4    0.0     0.0     0.0     0.0     0.0    0
0082  BUS_0000082  1  1  0 1.041 0.023     -8665       5651     0.0     0.0     0.4    0.0     0.0     0.0     0.0     0.0    0
0083  BUS_0000083  1  1  0 1.000 0.000       217         30     0.0     0.0     0.4    0.0     0.0     0.0     0.0     0.0    0
0084  BUS_0000084  1  1  0 1.001 0.000       217         30     0.0     0.0     0.4    0.0     0.0     0.0     0.0     0.0    0
0085  BUS_0000085  1  1  0 1.001 0.000       217         30     0.0     0.0     0.4    0.0     0.0     0.0     0.0     0.0    0
0086  BUS_0000086  1  1  0 1.002 0.001     -1576         21     0.0     0.0     0.4    0.0     0.0     0.0     0.0     0.0    0
0087  BUS_0000087  1  1  0 1.002 0.001     -3973         48     0.0     0.0     0.4    0.0     0.0     0.0     0.0     0.0    0
0088  BUS_0000088  1  1  0 1.002 0.001       341         48     0.0     0.0     0.4    0.0     0.0     0.0     0.0     0.0    0
0089  BUS_0000089  1  1  0 1.003 0.001     -5189       5655     0.0     0.0     0.4    0.0     0.0     0.0     0.0     0.0    0
0090  BUS_0000090  1  1  0 1.003 0.001     -3165         40     0.0     0.0     0.4    0.0     0.0     0.0     0.0     0.0    0
0091  BUS_0000091  1  1  0 1.000 0.000       217         30     0.0     0.0     0.4    0.0     0.0     0.0     0.0     0.0    0
0092  BUS_0000092  1  1  0 1.001 0.000       286         40     0.0     0.0     0.4    0.0     0.0     0.0     0.0     0.0    0
0093  BUS_0000093  1  1  0 1.001 0.000       217         30     0.0     0.0     0.4    0.0     0.0     0.0     0.0     0.0    0
0094  BUS_0000094  1  1  0 1.002 0.000     -3571         44     0.0     0.0     0.4    0.0     0.0     0.0     0.0     0.0    0
0095  BUS_0000095  1  1  0 1.002 0.000     -3571         44     0.0     0.0     0.4    0.0     0.0     0.0     0.0     0.0    0
0096  BUS_0000096  1  1  0 1.002 0.001       217         30     0.0     0.0     0.4    0.0     0.0     0.0     0.0     0.0    0
0097  BUS_0000097  1  1  0 1.002 0.001       286         40     0.0     0.0     0.4    0.0     0.0     0.0     0.0     0.0    0
0098  BUS_0000098  1  1  0 1.002 0.001       149         21     0.0     0.0     0.4    0.0     0.0     0.0     0.0     0.0    0
0099  BUS_0000099  1  1  0 1.041 0.024     -5214       5651     0.0     0.0     0.4    0.0     0.0     0.0     0.0     0.0    0
0100  BUS_0000100  1  1  0 1.042 0.024       341         48     0.0     0.0     0.4    0.0     0.0     0.0     0.0     0.0    0
0101  BUS_0000101  1  1  0 1.043 0.025     -2371         30     0.0     0.0     0.4    0.0     0.0     0.0     0.0     0.0    0
0102  BUS_0000102  1  1  0 1.043 0.025     -9071       5655     0.0     0.0     0.4    0.0     0.0     0.0     0.0     0.0    0
0103  BUS_0000103  1  1  0 1.043 0.026       217         30     0.0     0.0     0.4    0.0     0.0     0.0     0.0     0.0    0
0104  BUS_0000104  1  1  0 1.044 0.026     -8665       5651     0.0     0.0     0.4    0.0     0.0     0.0     0.0     0.0    0
0105  BUS_0000105  1  1  0 1.043 0.025     -9415       5727     0.0     0.0     0.4    0.0     0.0     0.0     0.0     0.0    0
0106  BUS_0000106  1  1  0 1.042 0.025     -9071       5655     0.0     0.0     0.4    0.0     0.0     0.0     0.0     0.0    0
-999
BRANCH DATA FOLLOWS                    112 ITEMS
1    2    1 1   0 00.01027   0.00133    0.0       0.057 0.057 0.057 0       0.0    0.0    0.0    0.0     0.0    0.0    0.0   
1    29   1 1   0 00.01220   0.00158    0.0       0.057 0.057 0.057 0       0.0    0.0    0.0    0.0     0.0    0.0    0.0   
1    40   1 1   0 00.06163   0.00797    0.0       0.057 0.057 0.057 0       0.0    0.0    0.0    0.0     0.0    0.0    0.0   
1    41   1 1   0 00.04879   0.00631    0.0       0.057 0.057 0.057 0       0.0    0.0    0.0    0.0     0.0    0.0    0.0   
1    83   1 1   0 00.00835   0.00108    0.0       0.057 0.057 0.057 0       0.0    0.0    0.0    0.0     0.0    0.0    0.0   
1    91   1 1   0 00.01220   0.00158    0.0       0.057 0.057 0.057 0       0.0    0.0    0.0    0.0     0.0    0.0    0.0   
2    3    1 1   0 00.00963   0.00125    0.0       0.057 0.057 0.057 0       0.0    0.0    0.0    0.0     0.0    0.0    0.0   
3    4    1 1   0 00.00899   0.00125    0.0       0.057 0.057 0.057 0       0.0    0.0    0.0    0.0     0.0    0.0    0.0   
4    5    1 1   0 00.01220   0.00158    0.0       0.057 0.057 0.057 0       0.0    0.0    0.0    0.0     0.0    0.0    0.0   
5    6    1 1   0 00.01027   0.00133    0.0       0.057 0.057 0.057 0       0.0    0.0    0.0    0.0     0.0    0.0    0.0   
6    7    1 1   0 00.01091   0.00141    0.0       0.057 0.057 0.057 0       0.0    0.0    0.0    0.0     0.0    0.0    0.0   
7    8    1 1   0 00.01027   0.00133    0.0       0.057 0.057 0.057 0       0.0    0.0    0.0    0.0     0.0    0.0    0.0   
8    9    1 1   0 00.01027   0.00133    0.0       0.057 0.057 0.057 0       0.0    0.0    0.0    0.0     0.0    0.0    0.0   
8    22   1 1   0 00.01091   0.00141    0.0       0.057 0.057 0.057 0       0.0    0.0    0.0    0.0     0.0    0.0    0.0   
9    10   1 1   0 00.01027   0.00133    0.0       0.057 0.057 0.057 0       0.0    0.0    0.0    0.0     0.0    0.0    0.0   
10   11   1 1   0 00.01156   0.00149    0.0       0.057 0.057 0.057 0       0.0    0.0    0.0    0.0     0.0    0.0    0.0   
11   12   1 1   0 00.00899   0.00116    0.0       0.057 0.057 0.057 0       0.0    0.0    0.0    0.0     0.0    0.0    0.0   
12   13   1 1   0 00.01220   0.00158    0.0       0.057 0.057 0.057 0       0.0    0.0    0.0    0.0     0.0    0.0    0.0   
13   14   1 1   0 00.01027   0.00133    0.0       0.057 0.057 0.057 0       0.0    0.0    0.0    0.0     0.0    0.0    0.0   
14   15   1 1   0 00.01220   0.00158    0.0       0.057 0.057 0.057 0       0.0    0.0    0.0    0.0     0.0    0.0    0.0   
15   16   1 1   0 00.01220   0.00158    0.0       0.057 0.057 0.057 0       0.0    0.0    0.0    0.0     0.0    0.0    0.0   
15   27   1 1   0 00.01220   0.00158    0.0       0.057 0.057 0.057 0       0.0    0.0    0.0    0.0     0.0    0.0    0.0
16   17   1 1   0 00.01091   0.00141    0.0       0.057 0.057 0.057 0       0.0    0.0    0.0    0.0     0.0    0.0    0.0   
17   18   1 1   0 00.01156   0.00149    0.0       0.057 0.057 0.057 0       0.0    0.0    0.0    0.0     0.0    0.0    0.0   
18   19   1 1   0 00.01027   0.00133    0.0       0.057 0.057 0.057 0       0.0    0.0    0.0    0.0     0.0    0.0    0.0   
19   20   1 1   0 00.01027   0.00133    0.0       0.057 0.057 0.057 0       0.0    0.0    0.0    0.0     0.0    0.0    0.0   
20   21   1 1   0 00.01220   0.00158    0.0       0.057 0.057 0.057 0       0.0    0.0    0.0    0.0     0.0    0.0    0.0   
21   28   1 1   0 00.00963   0.00125    0.0       0.057 0.057 0.057 0       0.0    0.0    0.0    0.0     0.0    0.0    0.0   
22   23   1 1   0 00.00963   0.00125    0.0       0.057 0.057 0.057 0       0.0    0.0    0.0    0.0     0.0    0.0    0.0   
23   24   1 1   0 00.00963   0.00125    0.0       0.057 0.057 0.057 0       0.0    0.0    0.0    0.0     0.0    0.0    0.0   
24   25   1 1   0 00.01027   0.00133    0.0       0.057 0.057 0.057 0       0.0    0.0    0.0    0.0     0.0    0.0    0.0   
25   26   1 1   0 00.01284   0.00166    0.0       0.057 0.057 0.057 0       0.0    0.0    0.0    0.0     0.0    0.0    0.0   
26   27   1 1   0 00.00963   0.00125    0.0       0.057 0.057 0.057 0       0.0    0.0    0.0    0.0     0.0    0.0    0.0   
28   39   1 1   0 00.01027   0.00133    0.0       0.057 0.057 0.057 0       0.0    0.0    0.0    0.0     0.0    0.0    0.0   
28   62   1 1   0 00.00899   0.00116    0.0       0.057 0.057 0.057 0       0.0    0.0    0.0    0.0     0.0    0.0    0.0   
28   82   1 1   0 00.00770   0.00100    0.0       0.057 0.057 0.057 0       0.0    0.0    0.0    0.0     0.0    0.0    0.0   
28   99   1 1   0 00.00706   0.00091    0.0       0.057 0.057 0.057 0       0.0    0.0    0.0    0.0     0.0    0.0    0.0   
28   106  1 1   0 00.01284   0.00166    0.0       0.057 0.057 0.057 0       0.0    0.0    0.0    0.0     0.0    0.0    0.0   
29   30   1 1   0 00.01477   0.00191    0.0       0.057 0.057 0.057 0       0.0    0.0    0.0    0.0     0.0    0.0    0.0
30   31   1 1   0 00.01284   0.00166    0.0       0.057 0.057 0.057 0       0.0    0.0    0.0    0.0     0.0    0.0    0.0   
31   32   1 1   0 00.01477   0.00191    0.0       0.057 0.057 0.057 0       0.0    0.0    0.0    0.0     0.0    0.0    0.0   
32   33   1 1   0 00.00963   0.00125    0.0       0.057 0.057 0.057 0       0.0    0.0    0.0    0.0     0.0    0.0    0.0   
33   34   1 1   0 00.01605   0.00208    0.0       0.057 0.057 0.057 0       0.0    0.0    0.0    0.0     0.0    0.0    0.0   
34   35   1 1   0 00.01156   0.00149    0.0       0.057 0.057 0.057 0       0.0    0.0    0.0    0.0     0.0    0.0    0.0   
35   36   1 1   0 00.01477   0.00191    0.0       0.057 0.057 0.057 0       0.0    0.0    0.0    0.0     0.0    0.0    0.0   
36   37   1 1   0 00.00963   0.00125    0.0       0.057 0.057 0.057 0       0.0    0.0    0.0    0.0     0.0    0.0    0.0   
37   38   1 1   0 00.01541   0.00199    0.0       0.057 0.057 0.057 0       0.0    0.0    0.0    0.0     0.0    0.0    0.0
38   39   1 1   0 00.01412   0.00183    0.0       0.057 0.057 0.057 0       0.0    0.0    0.0    0.0     0.0    0.0    0.0
40   44   1 1   0 00.01348   0.00174    0.0       0.057 0.057 0.057 0       0.0    0.0    0.0    0.0     0.0    0.0    0.0
41   42   1 1   0 00.04366   0.00564    0.0       0.057 0.057 0.057 0       0.0    0.0    0.0    0.0     0.0    0.0    0.0
42   43   1 1   0 00.05457   0.00706    0.0       0.057 0.057 0.057 0       0.0    0.0    0.0    0.0     0.0    0.0    0.0
43   44   1 1   0 00.04622   0.00598    0.0       0.057 0.057 0.057 0       0.0    0.0    0.0    0.0     0.0    0.0    0.0
44   45   1 1   0 00.00706   0.00091    0.0       0.057 0.057 0.057 0       0.0    0.0    0.0    0.0     0.0    0.0    0.0
44   63   1 1   0 00.00835   0.00108    0.0       0.057 0.057 0.057 0       0.0    0.0    0.0    0.0     0.0    0.0    0.0
45   46   1 1   0 00.00642   0.00083    0.0       0.057 0.057 0.057 0       0.0    0.0    0.0    0.0     0.0    0.0    0.0
46   47   1 1   0 00.00642   0.00083    0.0       0.057 0.057 0.057 0       0.0    0.0    0.0    0.0     0.0    0.0    0.0
47   48   1 1   0 00.00706   0.00091    0.0       0.057 0.057 0.057 0       0.0    0.0    0.0    0.0     0.0    0.0    0.0
48   49   1 1   0 00.00835   0.00108    0.0       0.057 0.057 0.057 0       0.0    0.0    0.0    0.0     0.0    0.0    0.0
49   50   1 1   0 00.00899   0.00116    0.0       0.057 0.057 0.057 0       0.0    0.0    0.0    0.0     0.0    0.0    0.0
50   51   1 1   0 00.00706   0.00091    0.0       0.057 0.057 0.057 0       0.0    0.0    0.0    0.0     0.0    0.0    0.0
51   52   1 1   0 00.00835   0.00108    0.0       0.057 0.057 0.057 0       0.0    0.0    0.0    0.0     0.0    0.0    0.0
52   53   1 1   0 00.00835   0.00108    0.0       0.057 0.057 0.057 0       0.0    0.0    0.0    0.0     0.0    0.0    0.0
53   54   1 1   0 00.00770   0.00100    0.0       0.057 0.057 0.057 0       0.0    0.0    0.0    0.0     0.0    0.0    0.0
54   55   1 1   0 00.00899   0.00116    0.0       0.057 0.057 0.057 0       0.0    0.0    0.0    0.0     0.0    0.0    0.0
55   56   1 1   0 00.00835   0.00108    0.0       0.057 0.057 0.057 0       0.0    0.0    0.0    0.0     0.0    0.0    0.0
56   57   1 1   0 00.00770   0.00100    0.0       0.057 0.057 0.057 0       0.0    0.0    0.0    0.0     0.0    0.0    0.0
57   58   1 1   0 00.00642   0.00083    0.0       0.057 0.057 0.057 0       0.0    0.0    0.0    0.0     0.0    0.0    0.0
58   59   1 1   0 00.00642   0.00083    0.0       0.057 0.057 0.057 0       0.0    0.0    0.0    0.0     0.0    0.0    0.0
59   60   1 1   0 00.00899   0.00116    0.0       0.057 0.057 0.057 0       0.0    0.0    0.0    0.0     0.0    0.0    0.0
60   61   1 1   0 00.00835   0.00108    0.0       0.057 0.057 0.057 0       0.0    0.0    0.0    0.0     0.0    0.0    0.0
61   62   1 1   0 00.00899   0.00116    0.0       0.057 0.057 0.057 0       0.0    0.0    0.0    0.0     0.0    0.0    0.0
63   64   1 1   0 00.00770   0.00100    0.0       0.057 0.057 0.057 0       0.0    0.0    0.0    0.0     0.0    0.0    0.0
64   65   1 1   0 00.00770   0.00100    0.0       0.057 0.057 0.057 0       0.0    0.0    0.0    0.0     0.0    0.0    0.0
65   66   1 1   0 00.00770   0.00100    0.0       0.057 0.057 0.057 0       0.0    0.0    0.0    0.0     0.0    0.0    0.0
66   67   1 1   0 00.00835   0.00108    0.0       0.057 0.057 0.057 0       0.0    0.0    0.0    0.0     0.0    0.0    0.0
67   68   1 1   0 00.00835   0.00108    0.0       0.057 0.057 0.057 0       0.0    0.0    0.0    0.0     0.0    0.0    0.0
68   69   1 1   0 00.00706   0.00091    0.0       0.057 0.057 0.057 0       0.0    0.0    0.0    0.0     0.0    0.0    0.0
69   70   1 1   0 00.00899   0.00116    0.0       0.057 0.057 0.057 0       0.0    0.0    0.0    0.0     0.0    0.0    0.0
70   71   1 1   0 00.00770   0.00100    0.0       0.057 0.057 0.057 0       0.0    0.0    0.0    0.0     0.0    0.0    0.0
71   72   1 1   0 00.00770   0.00100    0.0       0.057 0.057 0.057 0       0.0    0.0    0.0    0.0     0.0    0.0    0.0
72   73   1 1   0 00.00835   0.00108    0.0       0.057 0.057 0.057 0       0.0    0.0    0.0    0.0     0.0    0.0    0.0
73   74   1 1   0 00.00835   0.00108    0.0       0.057 0.057 0.057 0       0.0    0.0    0.0    0.0     0.0    0.0    0.0
74   75   1 1   0 00.00835   0.00108    0.0       0.057 0.057 0.057 0       0.0    0.0    0.0    0.0     0.0    0.0    0.0
75   76   1 1   0 00.00706   0.00091    0.0       0.057 0.057 0.057 0       0.0    0.0    0.0    0.0     0.0    0.0    0.0
76   77   1 1   0 00.00770   0.00100    0.0       0.057 0.057 0.057 0       0.0    0.0    0.0    0.0     0.0    0.0    0.0
77   78   1 1   0 00.00706   0.00091    0.0       0.057 0.057 0.057 0       0.0    0.0    0.0    0.0     0.0    0.0    0.0
78   79   1 1   0 00.00835   0.00108    0.0       0.057 0.057 0.057 0       0.0    0.0    0.0    0.0     0.0    0.0    0.0
79   80   1 1   0 00.00899   0.00116    0.0       0.057 0.057 0.057 0       0.0    0.0    0.0    0.0     0.0    0.0    0.0
80   81   1 1   0 00.00706   0.00091    0.0       0.057 0.057 0.057 0       0.0    0.0    0.0    0.0     0.0    0.0    0.0
81   82   1 1   0 00.00899   0.00116    0.0       0.057 0.057 0.057 0       0.0    0.0    0.0    0.0     0.0    0.0    0.0
83   84   1 1   0 00.01027   0.00133    0.0       0.057 0.057 0.057 0       0.0    0.0    0.0    0.0     0.0    0.0    0.0
84   85   1 1   0 00.00963   0.00125    0.0       0.057 0.057 0.057 0       0.0    0.0    0.0    0.0     0.0    0.0    0.0
85   86   1 1   0 00.00963   0.00125    0.0       0.057 0.057 0.057 0       0.0    0.0    0.0    0.0     0.0    0.0    0.0
86   87   1 1   0 00.00770   0.00100    0.0       0.057 0.057 0.057 0       0.0    0.0    0.0    0.0     0.0    0.0    0.0
87   88   1 1   0 00.00706   0.00091    0.0       0.057 0.057 0.057 0       0.0    0.0    0.0    0.0     0.0    0.0    0.0
88   89   1 1   0 00.00770   0.00100    0.0       0.057 0.057 0.057 0       0.0    0.0    0.0    0.0     0.0    0.0    0.0
89   90   1 1   0 00.01091   0.00141    0.0       0.057 0.057 0.057 0       0.0    0.0    0.0    0.0     0.0    0.0    0.0
90   98   1 1   0 00.01091   0.00141    0.0       0.057 0.057 0.057 0       0.0    0.0    0.0    0.0     0.0    0.0    0.0
91   92   1 1   0 00.00835   0.00108    0.0       0.057 0.057 0.057 0       0.0    0.0    0.0    0.0     0.0    0.0    0.0
92   93   1 1   0 00.00642   0.00083    0.0       0.057 0.057 0.057 0       0.0    0.0    0.0    0.0     0.0    0.0    0.0
93   94   1 1   0 00.01027   0.00133    0.0       0.057 0.057 0.057 0       0.0    0.0    0.0    0.0     0.0    0.0    0.0
94   95   1 1   0 00.00770   0.00100    0.0       0.057 0.057 0.057 0       0.0    0.0    0.0    0.0     0.0    0.0    0.0
95   96   1 1   0 00.01220   0.00158    0.0       0.057 0.057 0.057 0       0.0    0.0    0.0    0.0     0.0    0.0    0.0
96   97   1 1   0 00.00835   0.00108    0.0       0.057 0.057 0.057 0       0.0    0.0    0.0    0.0     0.0    0.0    0.0
97   98   1 1   0 00.00770   0.00100    0.0       0.057 0.057 0.057 0       0.0    0.0    0.0    0.0     0.0    0.0    0.0
99   100  1 1   0 00.00963   0.00125    0.0       0.057 0.057 0.057 0       0.0    0.0    0.0    0.0     0.0    0.0    0.0
100  101  1 1   0 00.01284   0.00166    0.0       0.057 0.057 0.057 0       0.0    0.0    0.0    0.0     0.0    0.0    0.0
101  102  1 1   0 00.01220   0.00158    0.0       0.057 0.057 0.057 0       0.0    0.0    0.0    0.0     0.0    0.0    0.0
102  103  1 1   0 00.00642   0.00083    0.0       0.057 0.057 0.057 0       0.0    0.0    0.0    0.0     0.0    0.0    0.0
103  104  1 1   0 00.01200   0.00158    0.0       0.057 0.057 0.057 0       0.0    0.0    0.0    0.0     0.0    0.0    0.0
104  105  1 1   0 00.01200   0.00158    0.0       0.057 0.057 0.057 0       0.0    0.0    0.0    0.0     0.0    0.0    0.0
105  106  1 1   0 00.00770   0.00100    0.0       0.057 0.057 0.057 0       0.0    0.0    0.0    0.0     0.0    0.0    0.0
-999
LOSS ZONE FOLLOWS                      1 ITEMS
  1  KIT LV106BUS
-99
INTERCHANGE DATA FOLLOWS               0 ITEMS
-9
TIE LINES FOLLOWS                      0 ITEMS
-999
END OF DATA